LTspice 24.0.12 for Windows
Circuit: * D:\Projects\ZekEng-Intern\LTSpice Files\Ventilator\PMU.asc
Start Time: Wed Jul  2 11:41:16 2025
Error on line 3518 : .sympath lib/sym
	 Unknown control card
solver = Normal
Maximum thread count: 20
tnom = 27
temp = 27
method = modified trap
c2: Increased Cpar to 1e-10
c3: Increased Cpar to 2.2e-13
.OP point found by inspection.
Total elapsed time: 0.103 seconds.

