LTspice 24.0.12 for Windows
Circuit: * D:\Projects\ZekEng-Intern\LTSpice Files\Ventilator\SW.asc
Start Time: Wed Jul  2 10:26:11 2025
solver = Normal
Maximum thread count: 20
tnom = 27
temp = 27
method = modified trap
Direct Newton iteration for .op point succeeded.
Total elapsed time: 0.041 seconds.

