LTspice 24.0.12 for Windows
Circuit: * D:\Projects\ZekEng-Intern\LTSpice Files\Ventilator\Ventilator.asc
Start Time: Thu Jul  3 10:55:16 2025
Error on line 3540 : .sympath lib/sym
	 Unknown control card
solver = Normal
Maximum thread count: 20



c1: Increased Cpar to 1e-10
c2: Increased Cpar to 1e-10
c3: Increased Cpar to 2.2e-13
WARNING: Less than two connections to node n003.  This node is used by s1.
U1:1:viak: Missing value, assumed 0V @ DC
U1:1:vika: Missing value, assumed 0V @ DC
Direct Newton iteration failed to find .op point.  (Use ".option noopiter" to skip.)
Starting Gmin stepping
Gmin = 10
Gmin = 1.07374
Gmin = 0.115292
Gmin = 0.0123794
Gmin = 0.00132923
Gmin = 0.000142725
Gmin = 1.5325e-05
Gmin = 1.6455e-06
Gmin = 1.76685e-07
Gmin = 1.89714e-08
Gmin = 2.03704e-09
Gmin = 2.18725e-10
Gmin = 2.34854e-11
Gmin = 2.52173e-12
Gmin = 2.70769e-13
Gmin = 0
Gmin stepping succeeded in finding the operating point.

Ignoring empty pin current: Ix(u2:vdd)
Ignoring empty pin current: Ix(u3:vdd)
Ignoring empty pin current: Ix(u4:vdd)
Ignoring empty pin current: Ix(u5:vdd)
Ignoring empty pin current: Ix(u2:vdd)
Ignoring empty pin current: Ix(u3:vdd)
Ignoring empty pin current: Ix(u4:vdd)
Ignoring empty pin current: Ix(u5:vdd)
.step rhumsensor=1 rpwr=1



.step rhumsensor=1000000 rpwr=1



.step rhumsensor=1 rpwr=1000000
tnom = 27
temp = 27
method = modified trap
.step rhumsensor=1000000 rpwr=1000000
Total elapsed time: 0.238 seconds.

