LTspice 24.0.12 for Windows
Circuit: * D:\Projects\ZekEng-Intern\LTSpice Files\TutorialRoman\TutorialRoman.asc
Start Time: Tue Jul  1 13:37:14 2025
solver = Normal
Maximum thread count: 20



Direct Newton iteration failed to find .op point.  (Use ".option noopiter" to skip.)
Starting Gmin stepping
Gmin = 10
Gmin = 1.07374
Gmin = 0.115292
Gmin = 0.0123794
Gmin = 0.00132923
Gmin = 0.000142725
Gmin = 1.5325e-05
Gmin = 1.6455e-06
Gmin = 1.76685e-07
Gmin = 1.89714e-08
Gmin = 2.03704e-09
Gmin = 2.18725e-10
Gmin = 2.34854e-11
Gmin = 2.52173e-12
Gmin = 2.70769e-13
Gmin = 0
Gmin stepping succeeded in finding the operating point.

.step rgain=100000




.step rgain=120000



.step rgain=140000



.step rgain=160000



.step rgain=180000
tnom = 27
temp = 27
method = modified trap
.step rgain=200000
Total elapsed time: 1.704 seconds.

